data_Delta_5_DFT(A2)
_audit_creation_method         'generated by CrystalMaker 9.2.6'
_cell_length_a                  12.1970(0)
_cell_length_b                  11.2990(0)
_cell_length_c                  11.4100(0)
_cell_angle_alpha               90.0000(0)
_cell_angle_beta               104.6300(0)
_cell_angle_gamma               90.0000(0)

_symmetry_space_group_name_H-M     'A 2'
_symmetry_Int_Tables_number         5
_symmetry_cell_setting             monoclinic
loop_
_symmetry_equiv_pos_as_xyz
'+x,+y,+z'
'+x,1/2+y,1/2+z'
'-x,+y,-z'
'-x,1/2+y,1/2-z'

loop_
_atom_site_label
_atom_site_type_symbol
_atom_site_occupancy
_atom_site_fract_x
_atom_site_fract_y
_atom_site_fract_z
  Al1    Al 1.0000      0.9169    0.7452    0.3490
  Al2    Al 1.0000      0.1674    0.6353    0.4224
  Al3    Al 1.0000      0.1710    0.6175    0.9230
  Al4    Al 1.0000      0.1772    0.8690    0.9302
  Al5    Al 1.0000      0.3231    0.0030    0.8218
  Al6    Al 1.0000      0.3268    0.7565    0.3262
  Al7    Al 1.0000      0.0000    0.9947    0.0000
  Al8    Al 1.0000      0.0000    0.4840    0.0000
  Al9    Al 1.0000      0.9982    0.9905    0.2536
  Al10    Al 1.0000      0.5000    0.3913    0.0000
  Al11    Al 1.0000      0.4955    0.8848    0.2539
  Al12    Al 1.0000      0.5000    0.3760    0.5000
  Al13    Al 1.0000      0.2528    0.3774    0.0531
  Al14    Al 1.0000      0.2485    0.9979    0.1984
  Al15    Al 1.0000      0.4097    0.6301    0.1052
  Al16    Al 1.0000      0.4211    0.1302    0.1018
  Al17    Al 1.0000      0.0856    0.7414    0.1439
  Al18    Al 1.0000      0.3352    0.7395    0.8285
    O1    O  1.0000      0.3394    0.3752    0.7186
    O2    O  1.0000      0.3374    0.6265    0.7086
    O3    O  1.0000      0.3361    0.8751    0.7140
    O4    O  1.0000      0.0020    0.1103    0.3738
    O5    O  1.0000      0.4973    0.4926    0.3767
    O6    O  1.0000      0.4939    0.7615    0.3722
    O7    O  1.0000      0.0082    0.6152    0.3813
    O8    O  1.0000      0.9866    0.8815    0.3688
    O9    O  1.0000      0.5143    0.9940    0.3784
   O10    O  1.0000      0.3298    0.1225    0.9500
   O11    O  1.0000      0.1677    0.2451    0.0440
   O12    O  1.0000      0.3430    0.3599    0.9568
   O13    O  1.0000      0.1602    0.4988    0.0279
   O14    O  1.0000      0.1660    0.4977    0.3192
   O15    O  1.0000      0.3405    0.6267    0.2249
   O16    O  1.0000      0.6730    0.6381    0.0456
   O17    O  1.0000      0.1565    0.7470    0.0269
   O18    O  1.0000      0.1709    0.7377    0.2946
   O19    O  1.0000      0.3369    0.8761    0.9367
   O20    O  1.0000      0.1539    0.5151    0.7884
   O21    O  1.0000      0.1627    0.4959    0.5401
   O22    O  1.0000      0.4967    0.7615    0.8727
   O23    O  1.0000      0.0031    0.8800    0.8759
   O24    O  1.0000      0.1727    0.7496    0.8037

